Version 4
SHEET 1 1548 680
WIRE 416 -64 256 -64
WIRE 496 -64 416 -64
WIRE 608 -64 496 -64
WIRE 256 -16 256 -64
WIRE 416 -16 416 -64
WIRE 496 32 496 -64
WIRE -176 64 -336 64
WIRE 416 64 416 48
WIRE 416 64 -48 64
WIRE 608 80 608 -64
WIRE 736 80 608 80
WIRE 816 80 736 80
WIRE 1136 80 1072 80
WIRE 1264 80 1264 48
WIRE 1264 80 1136 80
WIRE 256 96 256 48
WIRE 256 96 112 96
WIRE -336 112 -336 64
WIRE 416 128 416 64
WIRE 1264 128 1264 80
WIRE -176 144 -176 64
WIRE -48 144 -48 64
WIRE 256 144 256 96
WIRE 1136 144 1136 80
WIRE 736 160 736 80
WIRE 256 272 256 208
WIRE 416 272 416 192
WIRE 416 272 256 272
WIRE 496 272 496 96
WIRE 496 272 416 272
WIRE 736 272 736 224
WIRE 736 272 496 272
WIRE 944 272 944 176
WIRE 944 272 736 272
WIRE 1136 272 1136 208
WIRE 1136 272 944 272
WIRE 1264 272 1264 208
WIRE 1264 272 1136 272
WIRE -336 288 -336 192
WIRE -176 288 -176 224
WIRE -176 288 -336 288
WIRE -48 288 -48 224
WIRE 112 288 112 96
WIRE 112 288 -48 288
WIRE 1264 304 1264 272
FLAG 1264 304 0
FLAG 1264 48 Vout
SYMBOL voltage -336 96 R0
WINDOW 0 -55 16 Left 2
WINDOW 3 -275 102 Left 2
WINDOW 123 0 0 Left 0
WINDOW 39 0 0 Left 0
SYMATTR InstName V1
SYMATTR Value SINE(0 310 50 0 0 0 0)
SYMBOL schottky 432 48 R180
WINDOW 0 24 64 Left 2
WINDOW 3 24 0 Left 2
SYMATTR InstName D3
SYMATTR Value DFLS220L
SYMATTR Description Diode
SYMATTR Type diode
SYMBOL cap 480 32 R0
SYMATTR InstName C1
SYMATTR Value 1000µ
SYMATTR SpiceLine V=25
SYMBOL schottky 272 48 R180
WINDOW 0 24 64 Left 2
WINDOW 3 24 0 Left 2
SYMATTR InstName D1
SYMATTR Value DFLS220L
SYMATTR Description Diode
SYMATTR Type diode
SYMBOL schottky 272 208 R180
WINDOW 0 24 64 Left 2
WINDOW 3 24 0 Left 2
SYMATTR InstName D2
SYMATTR Value DFLS220L
SYMATTR Description Diode
SYMATTR Type diode
SYMBOL schottky 432 192 R180
WINDOW 0 24 64 Left 2
WINDOW 3 24 0 Left 2
SYMATTR InstName D4
SYMATTR Value DFLS220L
SYMATTR Description Diode
SYMATTR Type diode
SYMBOL PowerProducts\\LT1083-5 944 80 R0
SYMATTR InstName U1
SYMBOL cap 720 160 R0
SYMATTR InstName C2
SYMATTR Value 0.33µ
SYMBOL cap 1120 144 R0
SYMATTR InstName C3
SYMATTR Value 0.1µ
SYMBOL res 1248 112 R0
SYMATTR InstName R1
SYMATTR Value 1k
SYMBOL ind2 -192 240 M180
WINDOW 0 36 80 Left 2
WINDOW 3 -36 27 Left 2
SYMATTR InstName Lp
SYMATTR Value 1mH
SYMATTR Type ind
SYMATTR SpiceLine Ipk=34mA Rser=1m
SYMBOL ind2 -32 240 R180
WINDOW 0 36 80 Left 2
WINDOW 3 -54 27 Left 2
SYMATTR InstName Ls
SYMATTR Value 1.1µH
SYMATTR Type ind
SYMATTR SpiceLine Ipk=1A Rser=1m
TEXT -112 360 Left 2 !.tran 1 startup
TEXT -160 96 Left 2 !k Lp Ls 1
