Version 4
SHEET 1 2284 680
WIRE -32 -288 -224 -288
WIRE 160 -288 -32 -288
WIRE 544 -288 544 -336
WIRE 544 -288 160 -288
WIRE 544 -208 544 -288
WIRE 160 -160 160 -288
WIRE 304 -160 160 -160
WIRE 480 -160 384 -160
WIRE 544 -64 544 -112
WIRE 688 -64 544 -64
WIRE 160 -48 160 -160
WIRE 544 -32 544 -64
WIRE -224 0 -224 -288
WIRE -32 0 -32 -288
WIRE -496 48 -496 -32
WIRE 160 80 160 32
WIRE 544 112 544 48
WIRE 544 112 192 112
WIRE -496 160 -496 128
WIRE 160 240 160 144
WIRE 320 240 160 240
WIRE 544 240 544 112
WIRE 544 240 400 240
WIRE 160 272 160 240
WIRE -224 384 -224 64
WIRE -32 384 -32 64
WIRE -32 384 -224 384
WIRE 320 384 -32 384
WIRE 544 384 544 240
WIRE 544 384 400 384
FLAG 160 272 0
FLAG -496 160 0
FLAG -496 -32 5V
FLAG 544 -336 5V
FLAG 688 -64 OUT
SYMBOL tl431 176 80 M0
SYMATTR InstName U1
SYMBOL res 144 -64 R0
SYMATTR InstName R2
SYMATTR Value 1k
SYMBOL res 416 224 R90
WINDOW 0 0 56 VBottom 2
WINDOW 3 32 56 VTop 2
SYMATTR InstName R3
SYMATTR Value 1k
SYMBOL res 560 64 R180
WINDOW 0 36 76 Left 2
WINDOW 3 36 40 Left 2
SYMATTR InstName R4
SYMATTR Value 680
SYMBOL npn 480 -208 R0
SYMATTR InstName Q1
SYMATTR Value 2N2222
SYMBOL res 400 -176 R90
WINDOW 0 0 56 VBottom 2
WINDOW 3 32 56 VTop 2
SYMATTR InstName R1
SYMATTR Value 47
SYMBOL voltage -496 32 R0
WINDOW 123 0 0 Left 0
WINDOW 39 0 0 Left 0
SYMATTR InstName V1
SYMATTR Value 5
SYMBOL res 304 400 R270
WINDOW 0 32 56 VTop 2
WINDOW 3 0 56 VBottom 2
SYMATTR InstName R5
SYMATTR Value 680
SYMBOL LED -48 0 R0
SYMATTR InstName D1
SYMATTR Value QTLP690C
SYMATTR Description Diode
SYMATTR Type diode
SYMBOL diode -240 0 R0
SYMATTR InstName D2
SYMATTR Value QTLP690C
TEXT -528 344 Left 2 !.tran 1m
TEXT 1152 -304 Left 2 !*****************************************************************************\n* TL431 MACROMODEL ***************3-26-92************************************\n* REV N/A ****************************************************************DBB\n*****************************************************************************\n*               REFERENCE\n*               |  ANODE\n*               |  |  CATHODE\n*               |  |  |\n*.SUBCKT  TL431 1  2  3\n* Reverse symbol\n* Anode Cathode Ref   adjusted to LTSPICE symbol\n.SUBCKT  TL431 2 3 1\nV1  6  7  DC  1.4V\nI1  2  4  1E-3\nR1  1  2  1.2E6\nR2  4  2  RMOD 2.495E3\nR3  5  7  .2\nD1  3  6  DMOD1\nD2  2  3  DMOD1\nD3  2  7  DMOD2\nE1  5  2  POLY(2)  (4,2)  (1,2)  0  710  -710\n.MODEL RMOD RES (TC1=1.4E-5 TC2=-1E-6)\n.MODEL DMOD1 D (RS=.3)\n.MODEL DMOD2 D (RS=1E-6)\n.ENDS\n
