Version 4
SHEET 1 1952 680
WIRE 80 -32 80 -128
WIRE 416 -32 80 -32
WIRE 560 -32 416 -32
WIRE 864 -32 656 -32
WIRE 1072 -32 864 -32
WIRE 1264 -32 1072 -32
WIRE 1072 0 1072 -32
WIRE 1264 0 1264 -32
WIRE 416 32 416 -32
WIRE 864 32 864 -32
WIRE 80 144 80 -32
WIRE 416 144 416 112
WIRE 608 144 608 32
WIRE 608 144 416 144
WIRE 704 144 608 144
WIRE 864 144 864 112
WIRE 864 144 768 144
WIRE 608 192 608 144
WIRE 864 192 864 144
WIRE 864 192 784 192
WIRE 864 208 864 192
WIRE 1072 208 1072 80
WIRE 784 224 784 192
WIRE 784 224 640 224
WIRE 608 336 608 256
WIRE 864 336 864 288
WIRE 864 336 608 336
WIRE 80 384 80 224
WIRE 608 384 608 336
WIRE 608 384 80 384
WIRE 1072 384 1072 272
WIRE 1072 384 608 384
WIRE 1264 384 1264 80
WIRE 1264 384 1072 384
WIRE 1072 416 1072 384
FLAG 80 -128 Vin
FLAG 416 -32 Vin
FLAG 864 -32 Vout
FLAG 1072 416 0
SYMBOL voltage 80 128 R0
WINDOW 123 0 0 Left 0
WINDOW 39 0 0 Left 0
WINDOW 0 -50 11 Left 2
WINDOW 3 -33 99 Left 2
SYMATTR InstName Vin
SYMATTR Value 15
SYMBOL npn 560 32 R270
SYMATTR InstName Q1
SYMATTR Value 2N2222
SYMBOL res 400 16 R0
SYMATTR InstName R1
SYMATTR Value 680
SYMBOL cap 768 128 R90
WINDOW 0 0 32 VBottom 2
WINDOW 3 32 32 VTop 2
SYMATTR InstName C1
SYMATTR Value 1n
SYMBOL res 848 16 R0
SYMATTR InstName R2
SYMATTR Value 38k
SYMBOL res 1056 -16 R0
SYMATTR InstName R4
SYMATTR Value 3
SYMBOL cap 1056 208 R0
SYMATTR InstName C2
SYMATTR Value 10µ
SYMBOL res 1248 -16 R0
SYMATTR InstName R5
SYMATTR Value 200
SYMBOL res 848 192 R0
SYMATTR InstName R3
SYMATTR Value 10k
SYMBOL tl431 624 192 M0
WINDOW 0 57 22 Left 0
WINDOW 3 43 34 Left 0
SYMATTR InstName U1
TEXT 88 400 Left 2 !.tran 0 1 0 500n uic
TEXT 88 432 Left 2 !.options numdgt = 7
TEXT 88 464 Left 2 !.options plotwinsize = 0
TEXT 984 -48 Left 2 ;Out
TEXT 288 -48 Left 2 ;In
TEXT 624 368 Left 2 ;GND
TEXT 608 448 Left 2 ;R3 = (Vout-2.5)/250u
TEXT 648 216 Left 1 ;Vref
TEXT 576 200 Left 1 ;K
TEXT 576 248 Left 1 ;A
